// * * * * * * * * * * * * * * * * * * * * * * * * * * * * * * * * * * * * * //
FoamFile{
	version	 2.0;
	format	  ascii;
	class	   dictionary;
	location	"system";
	object	  controlDict;
}
// * * * * * * * * * * * * * * * * * * * * * * * * * * * * * * * * * * * * * //

libs
(
	"libOpenFOAM.so"
	"libforces.so"
	"libOpenFOAM.so"
);

application	 olaDyMFlow;

startFrom	   latestTime;

startTime	   0.0;

stopAt		  endTime;

endTime		 15.0;

deltaT		  0.0001;

writeControl	adjustable;

writeInterval   0.025;

writeFormat	 ascii;

writePrecision  6;

writeCompression off;

timeFormat	  general;

timePrecision   12;

runTimeModifiable true;
adjustTimeStep true;

DebugSwitches
{
  level	2;
  lduMatrix 2;
  libs 2;
}
OptimisationSwitches
{
fileHandler collated;
maxThreadFileBufferSize 1e9; // v1712 default is 0;
maxMasterFileBufferSize 1e9;
}


maxCo		   0.5;
maxAlphaCo	  0.5;
maxDeltaT 0.0001;
functions 
{
			preCICE_Adapter
	{
	   type preciceAdapterFunctionObject;
		libs ("libpreciceAdapterFunctionObject.so");
	}	
	
	
}
// ************************************************************************* //
