/*--------------------------------*- C++ -*----------------------------------*\
| =========                 |                                                 |
| \\      /  F ield         | OpenFOAM: The Open Source CFD Toolbox           |
|  \\    /   O peration     | Version:  2112                                  |
|   \\  /    A nd           | Website:  www.openfoam.com                      |
|    \\/     M anipulation  |                                                 |
\*---------------------------------------------------------------------------*/
FoamFile
{
    version     2.0;
    format      binary;
    arch        "LSB;label=32;scalar=64";
    class       decomposedBlockData;
    location    "constant/polyMesh";
    object      boundary;
    data.format ascii;
    data.class  polyBoundaryMesh;
}
// * * * * * * * * * * * * * * * * * * * * * * * * * * * * * * * * * * * * * //


// processor0

1160
(FoamFile
{
    version     2.0;
    format      ascii;
    arch        "LSB;label=32;scalar=64";
    class       polyBoundaryMesh;
    location    "constant/polyMesh";
    object      boundary;
}
6
(
    sideA
    {
        type            wall;
        inGroups        1(wall);
        nFaces          24;
        startFace       5616;
    }
    sideB
    {
        type            empty;
        inGroups        1(empty);
        nFaces          5760;
        startFace       5640;
    }
    interface
    {
        type            wall;
        inGroups        1(wall);
        nFaces          120;
        startFace       11400;
    }
    atmosphere
    {
        type            patch;
        nFaces          120;
        startFace       11520;
    }
    defaultFaces
    {
        type            patch;
        nFaces          0;
        startFace       11640;
    }
    procBoundary0to1
    {
        type            processor;
        inGroups        1(processor);
        nFaces          24;
        startFace       11640;
        matchTolerance  0.0001;
        transform       unknown;
        myProcNo        0;
        neighbProcNo    1;
    }
))

// processor1

964
(6
(
    sideA
    {
        type            wall;
        inGroups        1(wall);
        nFaces          24;
        startFace       5616;
    }
    sideB
    {
        type            empty;
        inGroups        1(empty);
        nFaces          5760;
        startFace       5640;
    }
    interface
    {
        type            wall;
        inGroups        1(wall);
        nFaces          120;
        startFace       11400;
    }
    atmosphere
    {
        type            patch;
        nFaces          120;
        startFace       11520;
    }
    defaultFaces
    {
        type            patch;
        nFaces          0;
        startFace       11640;
    }
    procBoundary1to0
    {
        type            processor;
        inGroups        1(processor);
        nFaces          24;
        startFace       11640;
        matchTolerance  0.0001;
        transform       unknown;
        myProcNo        1;
        neighbProcNo    0;
    }
))
