/*---------------------------------------------------------------------------*| =========				 |												 |
| \	  /  F ield		 | OpenFOAM: The Open Source CFD Toolbox		   |
|  \	/   O peration	 | Version:  7.0								   |
|   \  /	A nd		   | Web:	  http://www.openfoam.org			   |
|	\/	 M anipulation  |												 |
\*---------------------------------------------------------------------------*/
FoamFile
{
	version	 2.0;
	format	  ascii;
	class	   dictionary;
	location	"system";
	object	  setFieldsDict;
}
// * * * * * * * * * * * * * * * * * * * * * * * * * * * * * * * * * * * * * //
#include	  "../0.org/ICfiles/initialConditions"

defaultFieldValues
(
	volScalarFieldValue alpha.water 0
	volScalarFieldValue U 0	
);


regions
(
	boxToCell
	{
		box (-10.0 -4.0238000000000005 -1.0) (55.00000000000001 4.0238000000000005 2.0);

		fieldValues
		(
			volScalarFieldValue alpha.water 1
			volVectorFieldValue U (0.0 0 0)
		);
	}
);
